<routes>
            <vType accel="1.0" decel="4.5" id="standard_car" length="5.0" minGap="2.5" maxSpeed="25" sigma="0.5" />

            <route id="W_N" edges="W2TL TL2N"/>
            <route id="W_E" edges="W2TL TL2E"/>
            <route id="W_S" edges="W2TL TL2S"/>
            <route id="N_W" edges="N2TL TL2W"/>
            <route id="N_E" edges="N2TL TL2E"/>
            <route id="N_S" edges="N2TL TL2S"/>
            <route id="E_W" edges="E2TL TL2W"/>
            <route id="E_N" edges="E2TL TL2N"/>
            <route id="E_S" edges="E2TL TL2S"/>
            <route id="S_W" edges="S2TL TL2W"/>
            <route id="S_N" edges="S2TL TL2N"/>
            <route id="S_E" edges="S2TL TL2E"/>
    <vehicle id="E_W_0" type="standard_car" route="E_W" depart="19.0" departLane="random" departSpeed="10" />
    <vehicle id="W_E_1" type="standard_car" route="W_E" depart="36.0" departLane="random" departSpeed="10" />
    <vehicle id="S_N_2" type="standard_car" route="S_N" depart="50.0" departLane="random" departSpeed="10" />
    <vehicle id="W_E_3" type="standard_car" route="W_E" depart="58.0" departLane="random" departSpeed="10" />
    <vehicle id="N_E_4" type="standard_car" route="N_E" depart="97.0" departLane="random" departSpeed="10" />
    <vehicle id="W_N_5" type="standard_car" route="W_N" depart="99.0" departLane="random" departSpeed="10" />
    <vehicle id="N_S_6" type="standard_car" route="N_S" depart="101.0" departLane="random" departSpeed="10" />
    <vehicle id="W_S_7" type="standard_car" route="W_S" depart="107.0" departLane="random" departSpeed="10" />
    <vehicle id="W_E_8" type="standard_car" route="W_E" depart="111.0" departLane="random" departSpeed="10" />
    <vehicle id="E_W_9" type="standard_car" route="E_W" depart="130.0" departLane="random" departSpeed="10" />
    <vehicle id="S_N_10" type="standard_car" route="S_N" depart="131.0" departLane="random" departSpeed="10" />
    <vehicle id="W_E_11" type="standard_car" route="W_E" depart="137.0" departLane="random" departSpeed="10" />
    <vehicle id="S_W_12" type="standard_car" route="S_W" depart="154.0" departLane="random" departSpeed="10" />
    <vehicle id="E_W_13" type="standard_car" route="E_W" depart="161.0" departLane="random" departSpeed="10" />
    <vehicle id="E_W_14" type="standard_car" route="E_W" depart="165.0" departLane="random" departSpeed="10" />
    <vehicle id="N_E_15" type="standard_car" route="N_E" depart="171.0" departLane="random" departSpeed="10" />
    <vehicle id="W_E_16" type="standard_car" route="W_E" depart="174.0" departLane="random" departSpeed="10" />
    <vehicle id="W_E_17" type="standard_car" route="W_E" depart="179.0" departLane="random" departSpeed="10" />
    <vehicle id="N_S_18" type="standard_car" route="N_S" depart="182.0" departLane="random" departSpeed="10" />
    <vehicle id="N_S_19" type="standard_car" route="N_S" depart="184.0" departLane="random" departSpeed="10" />
    <vehicle id="E_W_20" type="standard_car" route="E_W" depart="187.0" departLane="random" departSpeed="10" />
    <vehicle id="W_E_21" type="standard_car" route="W_E" depart="188.0" departLane="random" departSpeed="10" />
    <vehicle id="N_E_22" type="standard_car" route="N_E" depart="194.0" departLane="random" departSpeed="10" />
    <vehicle id="N_W_23" type="standard_car" route="N_W" depart="199.0" departLane="random" departSpeed="10" />
    <vehicle id="E_W_24" type="standard_car" route="E_W" depart="202.0" departLane="random" departSpeed="10" />
    <vehicle id="W_E_25" type="standard_car" route="W_E" depart="203.0" departLane="random" departSpeed="10" />
    <vehicle id="E_S_26" type="standard_car" route="E_S" depart="207.0" departLane="random" departSpeed="10" />
    <vehicle id="W_E_27" type="standard_car" route="W_E" depart="209.0" departLane="random" departSpeed="10" />
    <vehicle id="N_S_28" type="standard_car" route="N_S" depart="212.0" departLane="random" departSpeed="10" />
    <vehicle id="N_S_29" type="standard_car" route="N_S" depart="213.0" departLane="random" departSpeed="10" />
    <vehicle id="S_N_30" type="standard_car" route="S_N" depart="214.0" departLane="random" departSpeed="10" />
    <vehicle id="N_W_31" type="standard_car" route="N_W" depart="218.0" departLane="random" departSpeed="10" />
    <vehicle id="E_W_32" type="standard_car" route="E_W" depart="219.0" departLane="random" departSpeed="10" />
    <vehicle id="S_W_33" type="standard_car" route="S_W" depart="220.0" departLane="random" departSpeed="10" />
    <vehicle id="E_W_34" type="standard_car" route="E_W" depart="221.0" departLane="random" departSpeed="10" />
    <vehicle id="E_N_35" type="standard_car" route="E_N" depart="224.0" departLane="random" departSpeed="10" />
    <vehicle id="S_N_36" type="standard_car" route="S_N" depart="225.0" departLane="random" departSpeed="10" />
    <vehicle id="N_E_37" type="standard_car" route="N_E" depart="225.0" departLane="random" departSpeed="10" />
    <vehicle id="S_N_38" type="standard_car" route="S_N" depart="227.0" departLane="random" departSpeed="10" />
    <vehicle id="S_N_39" type="standard_car" route="S_N" depart="233.0" departLane="random" departSpeed="10" />
    <vehicle id="W_E_40" type="standard_car" route="W_E" depart="234.0" departLane="random" departSpeed="10" />
    <vehicle id="W_E_41" type="standard_car" route="W_E" depart="245.0" departLane="random" departSpeed="10" />
    <vehicle id="S_N_42" type="standard_car" route="S_N" depart="245.0" departLane="random" departSpeed="10" />
    <vehicle id="W_N_43" type="standard_car" route="W_N" depart="246.0" departLane="random" departSpeed="10" />
    <vehicle id="E_W_44" type="standard_car" route="E_W" depart="247.0" departLane="random" departSpeed="10" />
    <vehicle id="E_W_45" type="standard_car" route="E_W" depart="252.0" departLane="random" departSpeed="10" />
    <vehicle id="N_S_46" type="standard_car" route="N_S" depart="254.0" departLane="random" departSpeed="10" />
    <vehicle id="E_W_47" type="standard_car" route="E_W" depart="255.0" departLane="random" departSpeed="10" />
    <vehicle id="S_N_48" type="standard_car" route="S_N" depart="265.0" departLane="random" departSpeed="10" />
    <vehicle id="N_S_49" type="standard_car" route="N_S" depart="266.0" departLane="random" departSpeed="10" />
    <vehicle id="W_S_50" type="standard_car" route="W_S" depart="270.0" departLane="random" departSpeed="10" />
    <vehicle id="E_W_51" type="standard_car" route="E_W" depart="271.0" departLane="random" departSpeed="10" />
    <vehicle id="E_W_52" type="standard_car" route="E_W" depart="274.0" departLane="random" departSpeed="10" />
    <vehicle id="N_S_53" type="standard_car" route="N_S" depart="289.0" departLane="random" departSpeed="10" />
    <vehicle id="W_E_54" type="standard_car" route="W_E" depart="291.0" departLane="random" departSpeed="10" />
    <vehicle id="S_N_55" type="standard_car" route="S_N" depart="292.0" departLane="random" departSpeed="10" />
    <vehicle id="N_S_56" type="standard_car" route="N_S" depart="293.0" departLane="random" departSpeed="10" />
    <vehicle id="S_N_57" type="standard_car" route="S_N" depart="293.0" departLane="random" departSpeed="10" />
    <vehicle id="E_S_58" type="standard_car" route="E_S" depart="296.0" departLane="random" departSpeed="10" />
    <vehicle id="W_E_59" type="standard_car" route="W_E" depart="299.0" departLane="random" departSpeed="10" />
    <vehicle id="E_W_60" type="standard_car" route="E_W" depart="299.0" departLane="random" departSpeed="10" />
    <vehicle id="S_N_61" type="standard_car" route="S_N" depart="300.0" departLane="random" departSpeed="10" />
    <vehicle id="W_S_62" type="standard_car" route="W_S" depart="301.0" departLane="random" departSpeed="10" />
    <vehicle id="W_E_63" type="standard_car" route="W_E" depart="302.0" departLane="random" departSpeed="10" />
    <vehicle id="E_N_64" type="standard_car" route="E_N" depart="302.0" departLane="random" departSpeed="10" />
    <vehicle id="W_S_65" type="standard_car" route="W_S" depart="305.0" departLane="random" departSpeed="10" />
    <vehicle id="S_N_66" type="standard_car" route="S_N" depart="305.0" departLane="random" departSpeed="10" />
    <vehicle id="S_N_67" type="standard_car" route="S_N" depart="306.0" departLane="random" departSpeed="10" />
    <vehicle id="W_E_68" type="standard_car" route="W_E" depart="309.0" departLane="random" departSpeed="10" />
    <vehicle id="S_E_69" type="standard_car" route="S_E" depart="316.0" departLane="random" departSpeed="10" />
    <vehicle id="W_E_70" type="standard_car" route="W_E" depart="319.0" departLane="random" departSpeed="10" />
    <vehicle id="N_S_71" type="standard_car" route="N_S" depart="319.0" departLane="random" departSpeed="10" />
    <vehicle id="S_N_72" type="standard_car" route="S_N" depart="320.0" departLane="random" departSpeed="10" />
    <vehicle id="S_N_73" type="standard_car" route="S_N" depart="326.0" departLane="random" departSpeed="10" />
    <vehicle id="E_W_74" type="standard_car" route="E_W" depart="327.0" departLane="random" departSpeed="10" />
    <vehicle id="E_N_75" type="standard_car" route="E_N" depart="328.0" departLane="random" departSpeed="10" />
    <vehicle id="N_W_76" type="standard_car" route="N_W" depart="337.0" departLane="random" departSpeed="10" />
    <vehicle id="E_N_77" type="standard_car" route="E_N" depart="338.0" departLane="random" departSpeed="10" />
    <vehicle id="W_E_78" type="standard_car" route="W_E" depart="345.0" departLane="random" departSpeed="10" />
    <vehicle id="E_W_79" type="standard_car" route="E_W" depart="349.0" departLane="random" departSpeed="10" />
    <vehicle id="S_N_80" type="standard_car" route="S_N" depart="350.0" departLane="random" departSpeed="10" />
    <vehicle id="S_N_81" type="standard_car" route="S_N" depart="350.0" departLane="random" departSpeed="10" />
    <vehicle id="N_W_82" type="standard_car" route="N_W" depart="352.0" departLane="random" departSpeed="10" />
    <vehicle id="S_W_83" type="standard_car" route="S_W" depart="352.0" departLane="random" departSpeed="10" />
    <vehicle id="W_N_84" type="standard_car" route="W_N" depart="354.0" departLane="random" departSpeed="10" />
    <vehicle id="N_S_85" type="standard_car" route="N_S" depart="359.0" departLane="random" departSpeed="10" />
    <vehicle id="W_E_86" type="standard_car" route="W_E" depart="361.0" departLane="random" departSpeed="10" />
    <vehicle id="N_S_87" type="standard_car" route="N_S" depart="362.0" departLane="random" departSpeed="10" />
    <vehicle id="E_W_88" type="standard_car" route="E_W" depart="363.0" departLane="random" departSpeed="10" />
    <vehicle id="W_E_89" type="standard_car" route="W_E" depart="370.0" departLane="random" departSpeed="10" />
    <vehicle id="S_N_90" type="standard_car" route="S_N" depart="371.0" departLane="random" departSpeed="10" />
    <vehicle id="E_W_91" type="standard_car" route="E_W" depart="372.0" departLane="random" departSpeed="10" />
    <vehicle id="S_N_92" type="standard_car" route="S_N" depart="379.0" departLane="random" departSpeed="10" />
    <vehicle id="W_E_93" type="standard_car" route="W_E" depart="379.0" departLane="random" departSpeed="10" />
    <vehicle id="S_N_94" type="standard_car" route="S_N" depart="380.0" departLane="random" departSpeed="10" />
    <vehicle id="S_N_95" type="standard_car" route="S_N" depart="381.0" departLane="random" departSpeed="10" />
    <vehicle id="S_N_96" type="standard_car" route="S_N" depart="383.0" departLane="random" departSpeed="10" />
    <vehicle id="W_E_97" type="standard_car" route="W_E" depart="383.0" departLane="random" departSpeed="10" />
    <vehicle id="E_W_98" type="standard_car" route="E_W" depart="384.0" departLane="random" departSpeed="10" />
    <vehicle id="S_N_99" type="standard_car" route="S_N" depart="386.0" departLane="random" departSpeed="10" />
    <vehicle id="W_E_100" type="standard_car" route="W_E" depart="388.0" departLane="random" departSpeed="10" />
    <vehicle id="W_E_101" type="standard_car" route="W_E" depart="388.0" departLane="random" departSpeed="10" />
    <vehicle id="N_S_102" type="standard_car" route="N_S" depart="397.0" departLane="random" departSpeed="10" />
    <vehicle id="N_S_103" type="standard_car" route="N_S" depart="399.0" departLane="random" departSpeed="10" />
    <vehicle id="W_E_104" type="standard_car" route="W_E" depart="405.0" departLane="random" departSpeed="10" />
    <vehicle id="N_E_105" type="standard_car" route="N_E" depart="407.0" departLane="random" departSpeed="10" />
    <vehicle id="E_W_106" type="standard_car" route="E_W" depart="411.0" departLane="random" departSpeed="10" />
    <vehicle id="E_N_107" type="standard_car" route="E_N" depart="412.0" departLane="random" departSpeed="10" />
    <vehicle id="S_N_108" type="standard_car" route="S_N" depart="416.0" departLane="random" departSpeed="10" />
    <vehicle id="N_S_109" type="standard_car" route="N_S" depart="417.0" departLane="random" departSpeed="10" />
    <vehicle id="N_S_110" type="standard_car" route="N_S" depart="418.0" departLane="random" departSpeed="10" />
    <vehicle id="E_W_111" type="standard_car" route="E_W" depart="420.0" departLane="random" departSpeed="10" />
    <vehicle id="N_W_112" type="standard_car" route="N_W" depart="420.0" departLane="random" departSpeed="10" />
    <vehicle id="S_N_113" type="standard_car" route="S_N" depart="422.0" departLane="random" departSpeed="10" />
    <vehicle id="N_S_114" type="standard_car" route="N_S" depart="424.0" departLane="random" departSpeed="10" />
    <vehicle id="E_S_115" type="standard_car" route="E_S" depart="425.0" departLane="random" departSpeed="10" />
    <vehicle id="W_E_116" type="standard_car" route="W_E" depart="431.0" departLane="random" departSpeed="10" />
    <vehicle id="N_W_117" type="standard_car" route="N_W" depart="433.0" departLane="random" departSpeed="10" />
    <vehicle id="E_W_118" type="standard_car" route="E_W" depart="436.0" departLane="random" departSpeed="10" />
    <vehicle id="S_N_119" type="standard_car" route="S_N" depart="436.0" departLane="random" departSpeed="10" />
    <vehicle id="S_N_120" type="standard_car" route="S_N" depart="438.0" departLane="random" departSpeed="10" />
    <vehicle id="N_S_121" type="standard_car" route="N_S" depart="439.0" departLane="random" departSpeed="10" />
    <vehicle id="N_E_122" type="standard_car" route="N_E" depart="440.0" departLane="random" departSpeed="10" />
    <vehicle id="W_N_123" type="standard_car" route="W_N" depart="441.0" departLane="random" departSpeed="10" />
    <vehicle id="N_S_124" type="standard_car" route="N_S" depart="445.0" departLane="random" departSpeed="10" />
    <vehicle id="W_E_125" type="standard_car" route="W_E" depart="445.0" departLane="random" departSpeed="10" />
    <vehicle id="S_N_126" type="standard_car" route="S_N" depart="447.0" departLane="random" departSpeed="10" />
    <vehicle id="S_E_127" type="standard_car" route="S_E" depart="452.0" departLane="random" departSpeed="10" />
    <vehicle id="E_W_128" type="standard_car" route="E_W" depart="460.0" departLane="random" departSpeed="10" />
    <vehicle id="N_S_129" type="standard_car" route="N_S" depart="465.0" departLane="random" departSpeed="10" />
    <vehicle id="W_E_130" type="standard_car" route="W_E" depart="466.0" departLane="random" departSpeed="10" />
    <vehicle id="E_W_131" type="standard_car" route="E_W" depart="466.0" departLane="random" departSpeed="10" />
    <vehicle id="N_S_132" type="standard_car" route="N_S" depart="468.0" departLane="random" departSpeed="10" />
    <vehicle id="N_S_133" type="standard_car" route="N_S" depart="470.0" departLane="random" departSpeed="10" />
    <vehicle id="N_S_134" type="standard_car" route="N_S" depart="470.0" departLane="random" departSpeed="10" />
    <vehicle id="S_N_135" type="standard_car" route="S_N" depart="472.0" departLane="random" departSpeed="10" />
    <vehicle id="W_N_136" type="standard_car" route="W_N" depart="472.0" departLane="random" departSpeed="10" />
    <vehicle id="W_E_137" type="standard_car" route="W_E" depart="472.0" departLane="random" departSpeed="10" />
    <vehicle id="W_E_138" type="standard_car" route="W_E" depart="473.0" departLane="random" departSpeed="10" />
    <vehicle id="S_N_139" type="standard_car" route="S_N" depart="476.0" departLane="random" departSpeed="10" />
    <vehicle id="S_N_140" type="standard_car" route="S_N" depart="477.0" departLane="random" departSpeed="10" />
    <vehicle id="N_E_141" type="standard_car" route="N_E" depart="478.0" departLane="random" departSpeed="10" />
    <vehicle id="E_S_142" type="standard_car" route="E_S" depart="484.0" departLane="random" departSpeed="10" />
    <vehicle id="N_W_143" type="standard_car" route="N_W" depart="485.0" departLane="random" departSpeed="10" />
    <vehicle id="S_N_144" type="standard_car" route="S_N" depart="486.0" departLane="random" departSpeed="10" />
    <vehicle id="S_N_145" type="standard_car" route="S_N" depart="487.0" departLane="random" departSpeed="10" />
    <vehicle id="E_W_146" type="standard_car" route="E_W" depart="488.0" departLane="random" departSpeed="10" />
    <vehicle id="S_E_147" type="standard_car" route="S_E" depart="491.0" departLane="random" departSpeed="10" />
    <vehicle id="E_W_148" type="standard_car" route="E_W" depart="492.0" departLane="random" departSpeed="10" />
    <vehicle id="N_W_149" type="standard_car" route="N_W" depart="492.0" departLane="random" departSpeed="10" />
    <vehicle id="E_W_150" type="standard_car" route="E_W" depart="492.0" departLane="random" departSpeed="10" />
    <vehicle id="E_S_151" type="standard_car" route="E_S" depart="497.0" departLane="random" departSpeed="10" />
    <vehicle id="E_W_152" type="standard_car" route="E_W" depart="501.0" departLane="random" departSpeed="10" />
    <vehicle id="N_S_153" type="standard_car" route="N_S" depart="502.0" departLane="random" departSpeed="10" />
    <vehicle id="W_E_154" type="standard_car" route="W_E" depart="504.0" departLane="random" departSpeed="10" />
    <vehicle id="W_E_155" type="standard_car" route="W_E" depart="505.0" departLane="random" departSpeed="10" />
    <vehicle id="S_N_156" type="standard_car" route="S_N" depart="506.0" departLane="random" departSpeed="10" />
    <vehicle id="N_S_157" type="standard_car" route="N_S" depart="507.0" departLane="random" departSpeed="10" />
    <vehicle id="E_N_158" type="standard_car" route="E_N" depart="512.0" departLane="random" departSpeed="10" />
    <vehicle id="S_N_159" type="standard_car" route="S_N" depart="514.0" departLane="random" departSpeed="10" />
    <vehicle id="S_N_160" type="standard_car" route="S_N" depart="518.0" departLane="random" departSpeed="10" />
    <vehicle id="W_E_161" type="standard_car" route="W_E" depart="518.0" departLane="random" departSpeed="10" />
    <vehicle id="W_E_162" type="standard_car" route="W_E" depart="520.0" departLane="random" departSpeed="10" />
    <vehicle id="N_S_163" type="standard_car" route="N_S" depart="520.0" departLane="random" departSpeed="10" />
    <vehicle id="N_S_164" type="standard_car" route="N_S" depart="522.0" departLane="random" departSpeed="10" />
    <vehicle id="E_W_165" type="standard_car" route="E_W" depart="522.0" departLane="random" departSpeed="10" />
    <vehicle id="N_S_166" type="standard_car" route="N_S" depart="524.0" departLane="random" departSpeed="10" />
    <vehicle id="N_S_167" type="standard_car" route="N_S" depart="525.0" departLane="random" departSpeed="10" />
    <vehicle id="S_N_168" type="standard_car" route="S_N" depart="525.0" departLane="random" departSpeed="10" />
    <vehicle id="S_N_169" type="standard_car" route="S_N" depart="530.0" departLane="random" departSpeed="10" />
    <vehicle id="E_W_170" type="standard_car" route="E_W" depart="531.0" departLane="random" departSpeed="10" />
    <vehicle id="W_E_171" type="standard_car" route="W_E" depart="532.0" departLane="random" departSpeed="10" />
    <vehicle id="E_S_172" type="standard_car" route="E_S" depart="532.0" departLane="random" departSpeed="10" />
    <vehicle id="W_E_173" type="standard_car" route="W_E" depart="533.0" departLane="random" departSpeed="10" />
    <vehicle id="S_N_174" type="standard_car" route="S_N" depart="534.0" departLane="random" departSpeed="10" />
    <vehicle id="S_W_175" type="standard_car" route="S_W" depart="536.0" departLane="random" departSpeed="10" />
    <vehicle id="E_W_176" type="standard_car" route="E_W" depart="537.0" departLane="random" departSpeed="10" />
    <vehicle id="S_W_177" type="standard_car" route="S_W" depart="538.0" departLane="random" departSpeed="10" />
    <vehicle id="S_N_178" type="standard_car" route="S_N" depart="544.0" departLane="random" departSpeed="10" />
    <vehicle id="S_N_179" type="standard_car" route="S_N" depart="545.0" departLane="random" departSpeed="10" />
    <vehicle id="N_S_180" type="standard_car" route="N_S" depart="546.0" departLane="random" departSpeed="10" />
    <vehicle id="W_E_181" type="standard_car" route="W_E" depart="547.0" departLane="random" departSpeed="10" />
    <vehicle id="E_W_182" type="standard_car" route="E_W" depart="547.0" departLane="random" departSpeed="10" />
    <vehicle id="E_S_183" type="standard_car" route="E_S" depart="550.0" departLane="random" departSpeed="10" />
    <vehicle id="N_S_184" type="standard_car" route="N_S" depart="552.0" departLane="random" departSpeed="10" />
    <vehicle id="W_E_185" type="standard_car" route="W_E" depart="554.0" departLane="random" departSpeed="10" />
    <vehicle id="S_W_186" type="standard_car" route="S_W" depart="560.0" departLane="random" departSpeed="10" />
    <vehicle id="E_N_187" type="standard_car" route="E_N" depart="564.0" departLane="random" departSpeed="10" />
    <vehicle id="S_N_188" type="standard_car" route="S_N" depart="566.0" departLane="random" departSpeed="10" />
    <vehicle id="E_W_189" type="standard_car" route="E_W" depart="568.0" departLane="random" departSpeed="10" />
    <vehicle id="E_S_190" type="standard_car" route="E_S" depart="569.0" departLane="random" departSpeed="10" />
    <vehicle id="E_W_191" type="standard_car" route="E_W" depart="579.0" departLane="random" departSpeed="10" />
    <vehicle id="W_E_192" type="standard_car" route="W_E" depart="580.0" departLane="random" departSpeed="10" />
    <vehicle id="W_E_193" type="standard_car" route="W_E" depart="583.0" departLane="random" departSpeed="10" />
    <vehicle id="S_N_194" type="standard_car" route="S_N" depart="585.0" departLane="random" departSpeed="10" />
    <vehicle id="E_W_195" type="standard_car" route="E_W" depart="589.0" departLane="random" departSpeed="10" />
    <vehicle id="S_E_196" type="standard_car" route="S_E" depart="590.0" departLane="random" departSpeed="10" />
    <vehicle id="W_N_197" type="standard_car" route="W_N" depart="591.0" departLane="random" departSpeed="10" />
    <vehicle id="S_N_198" type="standard_car" route="S_N" depart="594.0" departLane="random" departSpeed="10" />
    <vehicle id="W_S_199" type="standard_car" route="W_S" depart="595.0" departLane="random" departSpeed="10" />
    <vehicle id="N_S_200" type="standard_car" route="N_S" depart="599.0" departLane="random" departSpeed="10" />
    <vehicle id="E_W_201" type="standard_car" route="E_W" depart="600.0" departLane="random" departSpeed="10" />
    <vehicle id="W_E_202" type="standard_car" route="W_E" depart="601.0" departLane="random" departSpeed="10" />
    <vehicle id="N_S_203" type="standard_car" route="N_S" depart="604.0" departLane="random" departSpeed="10" />
    <vehicle id="W_N_204" type="standard_car" route="W_N" depart="607.0" departLane="random" departSpeed="10" />
    <vehicle id="E_W_205" type="standard_car" route="E_W" depart="607.0" departLane="random" departSpeed="10" />
    <vehicle id="W_E_206" type="standard_car" route="W_E" depart="608.0" departLane="random" departSpeed="10" />
    <vehicle id="N_E_207" type="standard_car" route="N_E" depart="609.0" departLane="random" departSpeed="10" />
    <vehicle id="W_E_208" type="standard_car" route="W_E" depart="611.0" departLane="random" departSpeed="10" />
    <vehicle id="E_W_209" type="standard_car" route="E_W" depart="612.0" departLane="random" departSpeed="10" />
    <vehicle id="E_W_210" type="standard_car" route="E_W" depart="613.0" departLane="random" departSpeed="10" />
    <vehicle id="S_N_211" type="standard_car" route="S_N" depart="614.0" departLane="random" departSpeed="10" />
    <vehicle id="S_N_212" type="standard_car" route="S_N" depart="617.0" departLane="random" departSpeed="10" />
    <vehicle id="E_W_213" type="standard_car" route="E_W" depart="617.0" departLane="random" departSpeed="10" />
    <vehicle id="N_S_214" type="standard_car" route="N_S" depart="617.0" departLane="random" departSpeed="10" />
    <vehicle id="W_E_215" type="standard_car" route="W_E" depart="618.0" departLane="random" departSpeed="10" />
    <vehicle id="W_E_216" type="standard_car" route="W_E" depart="624.0" departLane="random" departSpeed="10" />
    <vehicle id="E_W_217" type="standard_car" route="E_W" depart="626.0" departLane="random" departSpeed="10" />
    <vehicle id="W_E_218" type="standard_car" route="W_E" depart="626.0" departLane="random" departSpeed="10" />
    <vehicle id="N_W_219" type="standard_car" route="N_W" depart="628.0" departLane="random" departSpeed="10" />
    <vehicle id="W_S_220" type="standard_car" route="W_S" depart="629.0" departLane="random" departSpeed="10" />
    <vehicle id="W_E_221" type="standard_car" route="W_E" depart="629.0" departLane="random" departSpeed="10" />
    <vehicle id="E_W_222" type="standard_car" route="E_W" depart="636.0" departLane="random" departSpeed="10" />
    <vehicle id="N_S_223" type="standard_car" route="N_S" depart="638.0" departLane="random" departSpeed="10" />
    <vehicle id="W_E_224" type="standard_car" route="W_E" depart="641.0" departLane="random" departSpeed="10" />
    <vehicle id="N_S_225" type="standard_car" route="N_S" depart="642.0" departLane="random" departSpeed="10" />
    <vehicle id="S_W_226" type="standard_car" route="S_W" depart="645.0" departLane="random" departSpeed="10" />
    <vehicle id="N_W_227" type="standard_car" route="N_W" depart="646.0" departLane="random" departSpeed="10" />
    <vehicle id="N_W_228" type="standard_car" route="N_W" depart="647.0" departLane="random" departSpeed="10" />
    <vehicle id="N_W_229" type="standard_car" route="N_W" depart="650.0" departLane="random" departSpeed="10" />
    <vehicle id="N_S_230" type="standard_car" route="N_S" depart="651.0" departLane="random" departSpeed="10" />
    <vehicle id="E_W_231" type="standard_car" route="E_W" depart="652.0" departLane="random" departSpeed="10" />
    <vehicle id="W_S_232" type="standard_car" route="W_S" depart="653.0" departLane="random" departSpeed="10" />
    <vehicle id="W_E_233" type="standard_car" route="W_E" depart="655.0" departLane="random" departSpeed="10" />
    <vehicle id="E_W_234" type="standard_car" route="E_W" depart="656.0" departLane="random" departSpeed="10" />
    <vehicle id="W_N_235" type="standard_car" route="W_N" depart="657.0" departLane="random" departSpeed="10" />
    <vehicle id="W_E_236" type="standard_car" route="W_E" depart="657.0" departLane="random" departSpeed="10" />
    <vehicle id="N_E_237" type="standard_car" route="N_E" depart="659.0" departLane="random" departSpeed="10" />
    <vehicle id="N_S_238" type="standard_car" route="N_S" depart="660.0" departLane="random" departSpeed="10" />
    <vehicle id="N_S_239" type="standard_car" route="N_S" depart="661.0" departLane="random" departSpeed="10" />
    <vehicle id="E_N_240" type="standard_car" route="E_N" depart="661.0" departLane="random" departSpeed="10" />
    <vehicle id="N_S_241" type="standard_car" route="N_S" depart="662.0" departLane="random" departSpeed="10" />
    <vehicle id="N_W_242" type="standard_car" route="N_W" depart="663.0" departLane="random" departSpeed="10" />
    <vehicle id="S_N_243" type="standard_car" route="S_N" depart="663.0" departLane="random" departSpeed="10" />
    <vehicle id="N_S_244" type="standard_car" route="N_S" depart="669.0" departLane="random" departSpeed="10" />
    <vehicle id="E_W_245" type="standard_car" route="E_W" depart="672.0" departLane="random" departSpeed="10" />
    <vehicle id="W_E_246" type="standard_car" route="W_E" depart="672.0" departLane="random" departSpeed="10" />
    <vehicle id="W_E_247" type="standard_car" route="W_E" depart="673.0" departLane="random" departSpeed="10" />
    <vehicle id="N_S_248" type="standard_car" route="N_S" depart="673.0" departLane="random" departSpeed="10" />
    <vehicle id="S_N_249" type="standard_car" route="S_N" depart="674.0" departLane="random" departSpeed="10" />
    <vehicle id="S_N_250" type="standard_car" route="S_N" depart="674.0" departLane="random" departSpeed="10" />
    <vehicle id="N_S_251" type="standard_car" route="N_S" depart="676.0" departLane="random" departSpeed="10" />
    <vehicle id="E_W_252" type="standard_car" route="E_W" depart="677.0" departLane="random" departSpeed="10" />
    <vehicle id="N_E_253" type="standard_car" route="N_E" depart="678.0" departLane="random" departSpeed="10" />
    <vehicle id="N_W_254" type="standard_car" route="N_W" depart="678.0" departLane="random" departSpeed="10" />
    <vehicle id="E_W_255" type="standard_car" route="E_W" depart="681.0" departLane="random" departSpeed="10" />
    <vehicle id="E_W_256" type="standard_car" route="E_W" depart="684.0" departLane="random" departSpeed="10" />
    <vehicle id="N_S_257" type="standard_car" route="N_S" depart="684.0" departLane="random" departSpeed="10" />
    <vehicle id="W_N_258" type="standard_car" route="W_N" depart="685.0" departLane="random" departSpeed="10" />
    <vehicle id="N_S_259" type="standard_car" route="N_S" depart="686.0" departLane="random" departSpeed="10" />